[TITLE]
;;Project Title/Notes

[OPTIONS]
;;Option             Value
FLOW_UNITS           LPS
INFILTRATION         HORTON
FLOW_ROUTING DYNWAVE
LINK_OFFSETS         DEPTH
MIN_SLOPE            0
ALLOW_PONDING        NO
SKIP_STEADY_STATE    NO

START_DATE           01/01/2000
START_TIME           00:00:00
REPORT_START_DATE    01/01/2000
REPORT_START_TIME    00:00:00
END_DATE             01/01/2000
END_TIME             23:59:00
SWEEP_START          1/1
SWEEP_END            12/31
DRY_DAYS             0
REPORT_STEP          00:15:00
WET_STEP             00:05:00
DRY_STEP             01:00:00
ROUTING_STEP         0:00:05 
RULE_STEP            00:00:00

INERTIAL_DAMPING     PARTIAL
NORMAL_FLOW_LIMITED  BOTH
FORCE_MAIN_EQUATION  H-W
VARIABLE_STEP        0.75
LENGTHENING_STEP     0
MIN_SURFAREA         0
MAX_TRIALS           0
HEAD_TOLERANCE       0
SYS_FLOW_TOL         5
LAT_FLOW_TOL         5
MINIMUM_STEP         0.5
THREADS              1

[EVAPORATION]
;;Data Source    Parameters
;;-------------- ----------------
CONSTANT         0.0
DRY_ONLY         NO

[RAINGAGES]
;;Name           Format    Interval SCF      Source    
;;-------------- --------- ------ ------ ----------
1                INTENSITY 00:05    1        FILE       /opt/homebrew/Caskroom/miniforge/base/envs/kolkata_flood/lib/python3.13/site-packages/swmmanywhere/defs/storm.dat 1          mm   

[SUBCATCHMENTS]
;;Name           Rain Gage        Outlet           Area     %Imperv  Width    %Slope   CurbLen  SnowPack        
;;-------------- ---------------- ---------------- -------- -------- -------- -------- -------- ----------------
3141-sub         1                3141             0.08632683483519867 9.080727649564349 16.576695982914988 0.021693207323551178 0        empty           
3126-sub         1                3126             0.1726536696700553 28.21241554971592 23.442988278350754 0.027742981910705566 0        empty           
1864-sub         1                1864             0.08632683483519867 38.59385870643495 16.576695982914988 0.03008306585252285 0        empty           
1736-sub         1                1736             0.08632683483519867 44.8874504780159 16.576695982914988 0.021693207323551178 0        empty           
1298-sub         1                1298             0.08632683483519867 23.4680990046424 16.576695982914988 0.026907112449407578 0        empty           
1297-sub         1                1297             0.08632683483485662 5.719870678263332 16.576695982882146 0.03852512314915657 0        empty           
3-sub            1                3                0.25898050450525395 7.342642383147988 28.711679664012706 0.03076338954269886 0        empty           
3193-sub         1                3193             0.08632683483485662 91.50634452551827 16.576695982882146 0.012033226899802685 0        empty           
1941-sub         1                1941             0.17265366967176551 68.10984725906923 23.442988278466864 0.03922691196203232 0        empty           
1737-sub         1                1737             0.4316341741794138 51.655595310054444 37.06661906029247 0.06085760518908501 0        empty           
3229-sub         1                3229             0.34530733934216284 50.68661516464682 33.15339196589565 0.036726418882608414 0        empty           
1309-sub         1                1309             0.17265366967142345 47.79195250228806 23.44298827844364 0.03247975558042526 0        empty           
1296-sub         1                1296             0.2589805045069642 28.21164598645174 28.711679664107507 0.0411708764731884 0        empty           
1203-sub         1                1203             0.17265366967176551 0.044588235138142786 23.442988278466864 0.028603794053196907 0        empty           
1220-sub         1                1220             0.25898050450628013 10.74664656015406 28.71167966406959 0.08509161323308945 0        empty           
1219-sub         1                1219             0.17265366967176551 77.00754561246244 23.442988278466864 0.07544833421707153 0        empty           
1138-sub         1                1138             0.17265366967176551 28.024091829152013 23.442988278466864 0.06617370247840881 0        empty           
124-sub          1                124              0.25898050450662213 33.19707293006176 28.711679664088546 0.07084106653928757 0        empty           
126-sub          1                126              0.34530733934353103 37.85632663402305 33.15339196596133 0.052772801369428635 0        empty           
113-sub          1                113              0.34530733934318897 77.93674861057522 33.15339196594491 0.051769986748695374 0        empty           
2174-sub         1                2174             0.08632683483656685 63.25690776946536 16.576695983046346 0.006016613449901342 0        empty           
2065-sub         1                2065             0.2589805045093585 64.71216009618865 28.71167966424023 0.03633561730384827 0        empty           
1722-sub         1                1722             0.08632683483656685 40.665785009098 16.576695983046346 0.019026201218366623 0        empty           
1721-sub         1                1721             0.08632683483656685 72.6989427069032 16.576695983046346 0.04254388064146042 0        empty           
1724-sub         1                1724             0.08632683483656685 60.08202884666921 16.576695983046346 0.03008306585252285 0        empty           
1942-sub         1                1942             0.08632683483656685 53.09701688978713 16.576695983046346 0.04813290759921074 0        empty           
1949-sub         1                1949             0.08632683483656685 80.3703673731805 16.576695983046346 0.03008306585252285 0        empty           
1951-sub         1                1951             0.0863268348362248 77.88948858613017 16.576695983013508 0.019026201218366623 0        empty           
1888-sub         1                1888             0.08632683483656685 38.34515545384266 16.576695983046346 0.03609967976808548 0        empty           
1805-sub         1                1805             0.17265366967279164 43.71473191121717 23.44298827853653 0.0411633625626564 0        empty           
1865-sub         1                1865             0.08632683483656685 66.9650939752315 16.576695983046346 0.04813290759921074 0        empty           
1968-sub         1                1968             0.08632683483656685 74.85752773759829 16.576695983046346 0.02480713278055191 0        empty           
1289-sub         1                1289             0.08632683483656685 63.91543092529645 16.576695983046346 0.04850748926401138 0        empty           
1288-sub         1                1288             0.08632683483656685 63.274954762408065 16.576695983046346 0.0604662150144577 0        empty           
1295-sub         1                1295             0.0863268348362248 74.15958002766175 16.576695983013508 0.043386414647102356 0        empty           
1299-sub         1                1299             0.08632683483656685 17.731680263903268 16.576695983046346 0.07219935953617096 0        empty           
3205-sub         1                3205             0.0863268348362248 50.785100376193135 16.576695983013508 0.03852512314915657 0        empty           
123-sub          1                123              0.0863268348362248 21.201567450678763 16.576695983013508 0.055470433086156845 0        empty           
1207-sub         1                1207             0.34530733934284696 17.326811304241044 33.15339196592849 0.058498673141002655 0        empty           
1193-sub         1                1193             0.4316341741787297 6.197903833359714 37.06661906026309 0.07592176645994186 0        empty           
2168-sub         1                2168             0.25898050450764826 46.373301119900816 28.71167966414543 0.022042274475097656 0        empty           
2026-sub         1                2026             0.17265366967176551 54.69670387896306 23.442988278466864 0.040955767035484314 0        empty           
2-sub            1                2                0.5179610090146125 21.170977178154125 40.60444677951944 0.05346810817718506 0        empty           
127-sub          1                127              0.17265366967142348 29.888155605919824 23.442988278443643 0.05599743872880936 0        empty           
3383-sub         1                3383             0.17265366967108142 16.563866735399348 23.44298827842042 0.06583879888057709 0        empty           
2170-sub         1                2170             0.08632683483519867 49.79670618447715 16.576695982914988 0.03008306585252285 0        empty           
2023-sub         1                2023             0.08632683483519867 71.02300933907571 16.576695982914988 0.012033226899802685 0        empty           
1947-sub         1                1947             0.08632683483519867 54.978798663619976 16.576695982914988 0.02480713278055191 0        empty           
1880-sub         1                1880             0.08632683483485662 59.23873614277969 16.576695982882146 0.026907112449407578 0        empty           
1871-sub         1                1871             0.08632683483519867 36.89684256070465 16.576695982914988 0.043386414647102356 0        empty           
1866-sub         1                1866             0.08632683483485662 70.0235942573147 16.576695982882146 0.05676061660051346 0        empty           
1967-sub         1                1967             0.08632683483519867 69.0120170103798 16.576695982914988 0.04380160570144653 0        empty           
1734-sub         1                1734             0.08632683483519867 66.61847493397501 16.576695982914988 0.030678829178214073 0        empty           
1290-sub         1                1290             0.08632683483519867 59.397677674455466 16.576695982914988 0.06859994679689407 0        empty           
3231-sub         1                3231             0.08632683483519867 69.49848222905068 16.576695982914988 0.030678829178214073 0        empty           
1308-sub         1                1308             0.25898050450525395 58.39390312919422 28.711679664012706 0.03178836405277252 0        empty           
3207-sub         1                3207             0.08632683483519867 59.85664012098749 16.576695982914988 0.03659763187170029 0        empty           
3206-sub         1                3206             0.08632683483485662 63.08088868799185 16.576695982882146 0.026907112449407578 0        empty           
1206-sub         1                1206             0.1726536696700553 28.662287643303465 23.442988278350754 0.04851331561803818 0        empty           
1099-sub         1                1099             0.08632683483519867 0.0      16.576695982914988 0.0791361927986145 0        empty           
1136-sub         1                1136             0.1726536696700553 2.84321669614546 23.442988278350754 0.0465039387345314 0        empty           
1230-sub         1                1230             0.08632683483519867 17.361929959910913 16.576695982914988 0.06194482743740082 0        empty           
1229-sub         1                1229             0.08632683483519867 15.21765665303289 16.576695982914988 0.04211629182100296 0        empty           
1262-sub         1                1262             0.08632683483519867 43.785073430102806 16.576695982914988 0.0469912514090538 0        empty           
1266-sub         1                1266             0.08632683483519867 8.891860114278199 16.576695982914988 0.08508776128292084 0        empty           
1275-sub         1                1275             0.08632683483519867 27.255743331274257 16.576695982914988 0.05707860738039017 0        empty           
129-sub          1                129              0.08632683483485662 49.00407704740199 16.576695982882146 0.04850748926401138 0        empty           
130-sub          1                130              0.08632683483519867 48.404632721775585 16.576695982914988 0.035082582384347916 0        empty           
1939-sub         1                1939             0.9495951831933422 51.47575895339591 54.978680839298846 0.05126135051250458 0        empty           
3196-sub         1                3196             0.6906146786853519 51.00979682355003 46.88597655687567 0.05037788301706314 0        empty           
2169-sub         1                2169             0.4316341741797558 45.379669886761825 37.066619060307154 0.020593449473381042 0        empty           
2062-sub         1                2062             0.25898050450662213 50.819842849596164 28.711679664088546 0.033707521855831146 0        empty           
1860-sub         1                1860             0.17265366967176551 48.209008139317596 23.442988278466864 0.026196949183940887 0        empty           
1291-sub         1                1291             0.4316341741794138 57.933625586518346 37.06661906029247 0.025567930191755295 0        empty           
1170-sub         1                1170             0.2589805045083323 50.16784617496629 28.711679664183347 0.05507237836718559 0        empty           
1261-sub         1                1261             0.17265366967176551 22.315513047160916 23.442988278466864 0.08798167109489441 0        empty           
2178-sub         1                2178             0.08632683483656685 47.07027869256213 16.576695983046346 0.06281528621912003 0        empty           
2067-sub         1                2067             0.0863268348362248 24.16677209857007 16.576695983013508 0.026907112449407578 0        empty           
2068-sub         1                2068             0.08632683483656685 22.423630222286253 16.576695983046346 0.0469912514090538 0        empty           
2033-sub         1                2033             0.08632683483656685 38.3397502654737 16.576695983046346 0.03008306585252285 0        empty           
2049-sub         1                2049             0.08632683483656685 55.134201931377525 16.576695983046346 0.034035105258226395 0        empty           
1945-sub         1                1945             0.08632683483656685 71.95351185121159 16.576695983046346 0.02480713278055191 0        empty           
2040-sub         1                2040             0.25898050450970056 50.27911410983681 28.71167966425919 0.03398960828781128 0        empty           
1803-sub         1                1803             0.08632683483656685 55.98608400482067 16.576695983046346 0.02480713278055191 0        empty           
1868-sub         1                1868             0.0863268348362248 48.35966993383746 16.576695983013508 0.05175686627626419 0        empty           
1963-sub         1                1963             0.0863268348362248 74.45908360391114 16.576695983013508 0.07269901782274246 0        empty           
1962-sub         1                1962             0.08632683483656685 81.69569892641509 16.576695983046346 0.05105265602469444 0        empty           
3346-sub         1                3346             0.08632683483656685 45.44642142931487 16.576695983046346 0.07244961708784103 0        empty           
3208-sub         1                3208             0.08632683483656685 80.27979663081965 16.576695983046346 0.06194482743740082 0        empty           
1-sub            1                1                0.08632683483656685 28.169436399387425 16.576695983046346 0.019026201218366623 0        empty           
1201-sub         1                1201             0.34530733934592533 20.645449475397385 33.15339196607628 0.05408826470375061 0        empty           
1137-sub         1                1137             0.08632683483656685 0.0      16.576695983046346 0.0664556697010994 0        empty           
1264-sub         1                1264             0.0863268348362248 34.684924386653506 16.576695983013508 0.0835854634642601 0        empty           
1240-sub         1                1240             0.08632683483656685 25.856004017187644 16.576695983046346 0.03852512314915657 0        empty           
101-sub          1                101              0.08632683483656685 78.08130730779406 16.576695983046346 0.0601661317050457 0        empty           
102-sub          1                102              0.08632683483656685 58.074304985416404 16.576695983046346 0.040360670536756516 0        empty           
103-sub          1                103              0.08632683483656685 33.53767231930213 16.576695983046346 0.06194482743740082 0        empty           
116-sub          1                116              0.0863268348362248 99.46436024311397 16.576695983013508 0.10351373255252838 0        empty           
2044-sub         1                2044             0.2589805045069642 54.89019800590494 28.711679664107507 0.06529637426137924 0        empty           
2036-sub         1                2036             0.2589805045062801 50.843067542974104 28.711679664069585 0.021211551502346992 0        empty           
1952-sub         1                1952             0.2589805045069642 46.25631021552547 28.711679664107507 0.022554701194167137 0        empty           
1738-sub         1                1738             0.2589805045069642 52.057721239178555 28.711679664107507 0.05216383934020996 0        empty           
1306-sub         1                1306             0.43163417417941374 55.34036754282411 37.06661906029247 0.021110136061906815 0        empty           
1235-sub         1                1235             0.34530733934318897 18.892913743713944 33.15339196594491 0.06583882123231888 0        empty           
1228-sub         1                1228             0.25898050450662213 0.5748517446934427 28.711679664088546 0.06294744461774826 0        empty           
1199-sub         1                1199             0.7769415135208925 18.93166986792251 49.73008794887632 0.062198955565690994 0        empty           
2032-sub         1                2032             0.08632683483519867 22.758397106406587 16.576695982914988 0.06859994679689407 0        empty           
2058-sub         1                2058             0.08632683483519867 72.0635303865101 16.576695982914988 0.04813290759921074 0        empty           
2050-sub         1                2050             0.08632683483485662 70.3283003839017 16.576695982882146 0.013453556224703789 0        empty           
1852-sub         1                1852             0.1726536696700553 49.395957875050286 23.442988278350754 0.020180335268378258 0        empty           
1956-sub         1                1956             0.08632683483519867 40.50794533881936 16.576695982914988 0.043386414647102356 0        empty           
1292-sub         1                1292             0.08632683483485662 64.93419156520342 16.576695982882146 0.008508776314556599 0        empty           
3278-sub         1                3278             0.08632683483519867 65.95094737151167 16.576695982914988 0.013453556224703789 0        empty           
1171-sub         1                1171             0.17265366967039733 49.02193506297492 23.442988278373978 0.07443484663963318 0        empty           
1141-sub         1                1141             0.08632683483519867 9.999900975438928 16.576695982914988 0.0601661317050457 0        empty           
1103-sub         1                1103             0.08632683483485662 23.646014924092327 16.576695982882146 0.05676061660051346 0        empty           
1100-sub         1                1100             0.08632683483519867 13.622705865773971 16.576695982914988 0.03852512314915657 0        empty           
1140-sub         1                1140             0.08632683483519867 0.013317177697920912 16.576695982914988 0.038052402436733246 0        empty           
1241-sub         1                1241             0.17265366967039733 4.97276732219077 23.442988278373978 0.04094287008047104 0        empty           
84-sub           1                84               0.08632683483485662 97.94349243428641 16.576695982882146 0.0802716314792633 0        empty           
227-sub          1                227              0.08632683483519867 44.37964372883809 16.576695982914988 0.07442139834165573 0        empty           
2051-sub         1                2051             0.5179610090163226 56.670948044631785 40.604446779586475 0.032930538058280945 0        empty           
1946-sub         1                1946             0.8632683483564332 54.3522398565182 52.42011538630997 0.04165690392255783 0        empty           
3280-sub         1                3280             0.5179610090152965 47.24574120080638 40.60444677954625 0.026728244498372078 0        empty           
3209-sub         1                3209             0.43163417417907174 51.42104157738435 37.06661906027778 0.02947424352169037 0        empty           
1259-sub         1                1259             0.34530733934421515 33.74513352458114 33.153391965994174 0.04051478952169418 0        empty           
1820-sub         1                1820             0.17265366967176551 53.13066061607745 23.442988278466864 0.05452362447977066 0        empty           
1899-sub         1                1899             0.4316341741797558 50.61504729956569 37.066619060307154 0.03520895913243294 0        empty           
1811-sub         1                1811             0.17265366967176551 53.00195368784679 23.442988278466864 0.03141390532255173 0        empty           
1959-sub         1                1959             0.25898050450764826 49.020821639741015 28.71167966414543 0.03176918998360634 0        empty           
1305-sub         1                1305             0.17265366967176551 50.86786801011212 23.442988278466864 0.02965378388762474 0        empty           
1226-sub         1                1226             0.17265366967176551 24.554267704128616 23.442988278466864 0.034365616738796234 0        empty           
1258-sub         1                1258             0.17265366967142348 15.006813519840016 23.442988278443643 0.04476756602525711 0        empty           
3381-sub         1                3381             0.08632683483656685 41.90510687421056 16.576695983046346 0.06395747512578964 0        empty           
1903-sub         1                1903             0.0863268348362248 69.49299687892466 16.576695983013508 0.013453556224703789 0        empty           
2037-sub         1                2037             0.08632683483656685 62.69673124261735 16.576695983046346 0.035082582384347916 0        empty           
2055-sub         1                2055             0.1726536696731337 67.45565577350054 23.44298827855975 0.04014654830098152 0        empty           
1853-sub         1                1853             0.08632683483656685 60.90223241062742 16.576695983046346 0.019026201218366623 0        empty           
1976-sub         1                1976             0.08632683483656685 62.464690003362435 16.576695983046346 0.008508776314556599 0        empty           
1970-sub         1                1970             0.0863268348362248 71.45916921168302 16.576695983013508 0.013453556224703789 0        empty           
1304-sub         1                1304             0.08632683483656685 68.71475155567462 16.576695983046346 0.008508776314556599 0        empty           
1167-sub         1                1167             0.08632683483656685 52.93345573962824 16.576695983046346 0.043386414647102356 0        empty           
1168-sub         1                1168             0.08632683483656685 61.35792128878277 16.576695983046346 0.0601661317050457 0        empty           
1225-sub         1                1225             0.08632683483656685 23.633775471939334 16.576695983046346 0.045821163803339005 0        empty           
1267-sub         1                1267             0.08632683483656685 21.67943203711636 16.576695983046346 0.013453556224703789 0        empty           
1268-sub         1                1268             0.0863268348362248 3.549713994076136 16.576695983013508 0.05414951965212822 0        empty           
1139-sub         1                1139             0.08632683483656685 3.381259442137938 16.576695983046346 0.021693207323551178 0        empty           
1280-sub         1                1280             0.08632683483656685 68.4809536681383 16.576695983046346 0.02552632801234722 0        empty           
4-sub            1                4                0.5179610090146125 37.14429551374527 40.60444677951944 0.07253790646791458 0        empty           
2045-sub         1                2045             0.604287843849469 63.541775637010545 43.857815130028165 0.04787392169237137 0        empty           
2053-sub         1                2053             0.17265366967176551 63.443848303608185 23.442988278466864 0.04672379791736603 0        empty           
1771-sub         1                1771             0.17265366967176551 53.61757913073539 23.442988278466864 0.025279175490140915 0        empty           
1766-sub         1                1766             0.17265366967176551 57.46682098075863 23.442988278466864 0.022304227575659752 0        empty           
3321-sub         1                3321             0.25898050450799026 62.15838919728479 28.711679664164386 0.02022436447441578 0        empty           
1172-sub         1                1172             0.17265366967176551 36.73758947446498 23.442988278466864 0.04742170870304108 0        empty           
1227-sub         1                1227             0.17265366967142345 18.74967282233807 23.44298827844364 0.04725509509444237 0        empty           
1179-sub         1                1179             0.34530733934284696 5.158759611300476 33.15339196592849 0.047155849635601044 0        empty           
88-sub           1                88               0.17265366967176551 50.50356454822293 23.442988278466864 0.10337552428245544 0        empty           
87-sub           1                87               0.25898050450764826 73.81153150343633 28.71167966414543 0.14468863606452942 0        empty           
3149-sub         1                3149             0.08632683483519867 57.92349359471629 16.576695982914988 0.08072134107351303 0        empty           
1904-sub         1                1904             0.08632683483485662 68.744320516194 16.576695982882146 0.026907112449407578 0        empty           
2035-sub         1                2035             0.08632683483519867 66.50231376908404 16.576695982914988 0.021693207323551178 0        empty           
2034-sub         1                2034             0.08632683483519867 69.07086538130585 16.576695982914988 0.030678829178214073 0        empty           
2027-sub         1                2027             0.08632683483519867 64.58658958594815 16.576695982914988 0.06726778298616409 0        empty           
1900-sub         1                1900             0.25898050450525395 55.46634621741588 28.711679664012706 0.046448882669210434 0        empty           
1851-sub         1                1851             0.08632683483519867 49.4663783241337 16.576695982914988 0.05105265602469444 0        empty           
1770-sub         1                1770             0.08632683483519867 65.35712684054653 16.576695982914988 0.021693207323551178 0        empty           
1958-sub         1                1958             0.08632683483485662 35.05305091156291 16.576695982882146 0.02480713278055191 0        empty           
1973-sub         1                1973             0.08632683483519867 59.82580181211831 16.576695982914988 0.035082582384347916 0        empty           
3323-sub         1                3323             0.08632683483519867 42.25966700122182 16.576695982914988 0.01804983988404274 0        empty           
1302-sub         1                1302             0.08632683483485662 45.562582242436825 16.576695982882146 0.013453556224703789 0        empty           
1303-sub         1                1303             0.08632683483519867 43.989302779721065 16.576695982914988 0.03008306585252285 0        empty           
1314-sub         1                1314             0.08632683483519867 12.339345647020892 16.576695982914988 0.055470433086156845 0        empty           
1178-sub         1                1178             0.08632683483519867 0.0      16.576695982914988 0.013453556224703789 0        empty           
1238-sub         1                1238             0.08632683483519867 0.0      16.576695982914988 0.03008306585252285 0        empty           
1284-sub         1                1284             2.676131879910998 27.43870733575111 92.29513714748376 0.04464458301663399 0        empty           
1768-sub         1                1768             0.3453073393438731 62.30304982928886 33.153391965977754 0.04732552915811539 0        empty           
1972-sub         1                1972             0.2589805045083323 55.61413857878923 28.711679664183347 0.035349540412425995 0        empty           
1821-sub         1                1821             0.2589805045069642 61.193697157840646 28.711679664107507 0.04901351407170296 0        empty           
2008-sub         1                2008             0.34530733934284696 60.27451213575328 33.15339196592849 0.08735306560993195 0        empty           
1957-sub         1                1957             0.17265366967176551 45.34949037773169 23.442988278466864 0.037325017154216766 0        empty           
3294-sub         1                3294             0.43163417417804556 53.501847962941405 37.06661906023372 0.05141168087720871 0        empty           
1440-sub         1                1440             0.43163417417838773 43.836355988891675 37.066619060248414 0.03670168295502663 0        empty           
1274-sub         1                1274             0.25898050450662213 40.44279064442268 28.711679664088546 0.06864047050476074 0        empty           